data_zeolite_CAN
_cell_length_a        12.59192
_cell_length_b        12.59192
_cell_length_c        5.300494
_cell_angle_alpha     90
_cell_angle_beta      90
_cell_angle_gamma     120
_symmetry_space_group_name_H-M   'P6_3/mmc'
_symmetry_Int_Tables_number      194

loop_
_atom_site_label
_atom_site_type_symbol
_atom_site_occupancy
_atom_site_fract_x
_atom_site_fract_y
_atom_site_fract_z
O O 1.0 0.0000000 0.3474890 0.5000000
O O 1.0 0.0000000 0.6525110 0.0000000
O O 1.0 0.6525110 0.6525110 0.5000000
O O 1.0 0.3474890 0.0000000 0.5000000
O O 1.0 0.6525110 0.0000000 0.0000000
O O 1.0 0.3474890 0.3474890 0.0000000
O O 1.0 0.0000000 0.6525110 0.5000000
O O 1.0 0.0000000 0.3474890 0.0000000
O O 1.0 0.3474890 0.3474890 0.5000000
O O 1.0 0.6525110 0.0000000 0.5000000
O O 1.0 0.3474890 0.0000000 0.0000000
O O 1.0 0.6525110 0.6525110 0.0000000
O O 1.0 0.7951686 0.2048314 0.2500000
O O 1.0 0.2048314 0.7951686 0.7500000
O O 1.0 0.7951686 0.5903372 0.2500000
O O 1.0 0.4096628 0.2048314 0.2500000
O O 1.0 0.5903372 0.7951686 0.7500000
O O 1.0 0.2048314 0.4096628 0.7500000
O O 1.0 0.8909089 0.4454545 0.2500000
O O 1.0 0.1090911 0.5545455 0.7500000
O O 1.0 0.5545455 0.4454545 0.2500000
O O 1.0 0.5545455 0.1090911 0.2500000
O O 1.0 0.4454545 0.8909089 0.7500000
O O 1.0 0.4454545 0.5545455 0.7500000
Si Si 1.0 0.9207014 0.3339332 0.2500000
Si Si 1.0 0.0792986 0.6660668 0.7500000
Si Si 1.0 0.6660668 0.5867682 0.2500000
Si Si 1.0 0.4132318 0.0792986 0.2500000
Si Si 1.0 0.5867682 0.9207014 0.7500000
Si Si 1.0 0.3339332 0.4132318 0.7500000
Si Si 1.0 0.5867682 0.6660668 0.7500000
Si Si 1.0 0.0792986 0.4132318 0.7500000
Si Si 1.0 0.3339332 0.9207014 0.7500000
Si Si 1.0 0.6660668 0.0792986 0.2500000
Si Si 1.0 0.9207014 0.5867682 0.2500000
Si Si 1.0 0.4132318 0.3339332 0.2500000
