data_zeolite_SFE
_cell_length_a        11.55505
_cell_length_b        5.263607
_cell_length_c        14.20857
_cell_angle_alpha     90
_cell_angle_beta      100.7343
_cell_angle_gamma     90
_symmetry_space_group_name_H-M   'P2_1/m'
_symmetry_Int_Tables_number      11

loop_
_atom_site_label
_atom_site_type_symbol
_atom_site_occupancy
_atom_site_fract_x
_atom_site_fract_y
_atom_site_fract_z
O O 1.0 0.2864561 0.2500000 0.3035653
O O 1.0 0.7135439 0.7500000 0.6964347
O O 1.0 0.3086906 0.4993281 0.1473488
O O 1.0 0.6913094 0.9993281 0.8526512
O O 1.0 0.6913094 0.5006719 0.8526512
O O 1.0 0.3086906 0.0006719 0.1473488
O O 1.0 0.1120078 0.2500000 0.1498270
O O 1.0 0.8879922 0.7500000 0.8501730
O O 1.0 0.3667377 0.2500000 0.4958717
O O 1.0 0.6332623 0.7500000 0.5041283
O O 1.0 0.4781520 0.0001727 0.3797409
O O 1.0 0.5218480 0.5001727 0.6202591
O O 1.0 0.5218480 0.9998273 0.6202591
O O 1.0 0.4781520 0.4998273 0.3797409
O O 1.0 0.3561839 0.2500000 0.6852536
O O 1.0 0.6438161 0.7500000 0.3147464
O O 1.0 0.6645219 0.2500000 0.0066823
O O 1.0 0.3354781 0.7500000 0.9933177
O O 1.0 0.4940438 0.2500000 0.8532276
O O 1.0 0.5059562 0.7500000 0.1467724
O O 1.0 0.2935699 0.4998384 0.8305007
O O 1.0 0.7064301 0.9998384 0.1694993
O O 1.0 0.7064301 0.5001616 0.1694993
O O 1.0 0.2935699 0.0001616 0.8305007
O O 1.0 0.8775314 0.2500000 0.1086037
O O 1.0 0.1224686 0.7500000 0.8913963
O O 1.0 0.0000000 0.0000000 0.0000000
O O 1.0 0.0000000 0.5000000 0.0000000
Si Si 1.0 0.2524009 0.2500000 0.1875215
Si Si 1.0 0.7475991 0.7500000 0.8124785
Si Si 1.0 0.3996629 0.2500000 0.3894135
Si Si 1.0 0.6003371 0.7500000 0.6105865
Si Si 1.0 0.4390877 0.2500000 0.6057419
Si Si 1.0 0.5609123 0.7500000 0.3942581
Si Si 1.0 0.6343930 0.2500000 0.8911120
Si Si 1.0 0.3656070 0.7500000 0.1088880
Si Si 1.0 0.3572062 0.2500000 0.7995974
Si Si 1.0 0.6427938 0.7500000 0.2004026
Si Si 1.0 0.7395977 0.2500000 0.1151509
Si Si 1.0 0.2604023 0.7500000 0.8848491
Si Si 1.0 0.9969144 0.2500000 0.0655138
Si Si 1.0 0.0030856 0.7500000 0.9344862
